*SPEF "ieee 1481-1999"
*DESIGN "tiny_user_project"
*DATE "11:11:11 Fri 11 11, 1111"
*VENDOR "OpenRCX"
*PROGRAM "Parallel Extraction"
*VERSION "1.0"
*DESIGN_FLOW "NAME_SCOPE LOCAL" "PIN_CAP NONE"
*DIVIDER /
*DELIMITER :
*BUS_DELIMITER []
*T_UNIT 1 NS
*C_UNIT 1 PF
*R_UNIT 1 OHM
*L_UNIT 1 HENRY

*NAME_MAP
*1 io_in[0]
*2 io_in[10]
*3 io_in[11]
*4 io_in[12]
*5 io_in[13]
*6 io_in[14]
*7 io_in[15]
*8 io_in[16]
*9 io_in[17]
*10 io_in[18]
*11 io_in[19]
*12 io_in[1]
*13 io_in[20]
*14 io_in[21]
*15 io_in[22]
*16 io_in[23]
*17 io_in[24]
*18 io_in[25]
*19 io_in[26]
*20 io_in[27]
*21 io_in[28]
*22 io_in[29]
*23 io_in[2]
*24 io_in[30]
*25 io_in[31]
*26 io_in[32]
*27 io_in[33]
*28 io_in[34]
*29 io_in[35]
*30 io_in[36]
*31 io_in[37]
*32 io_in[3]
*33 io_in[4]
*34 io_in[5]
*35 io_in[6]
*36 io_in[7]
*37 io_in[8]
*38 io_in[9]
*39 net191
*40 net40
*41 net41
*42 net42
*43 net43
*44 net44
*45 net45
*46 net46
*47 net47
*48 net48
*49 net49
*50 net31
*51 net50
*52 net51
*53 net52
*54 net53
*55 net54
*56 net55
*57 net56
*58 net57
*59 net58
*60 net59
*61 net32
*62 net60
*63 net61
*64 net62
*65 net63
*66 net64
*67 net65
*68 net66
*69 net67
*70 net33
*71 net34
*72 net35
*73 net36
*74 net37
*75 net38
*76 net39
*77 net68
*78 net78
*79 net79
*80 net80
*81 net81
*82 net82
*83 net83
*84 net84
*85 net85
*86 net86
*87 net87
*88 net69
*89 net88
*90 net89
*91 net90
*92 io_out[23]
*93 io_out[24]
*94 io_out[25]
*95 io_out[26]
*96 io_out[27]
*97 io_out[28]
*98 io_out[29]
*99 net70
*100 io_out[30]
*101 io_out[31]
*102 io_out[32]
*103 io_out[33]
*104 io_out[34]
*105 io_out[35]
*106 io_out[36]
*107 io_out[37]
*108 net71
*109 net72
*110 net73
*111 net74
*112 net75
*113 net76
*114 net77
*115 la_data_in[0]
*116 la_data_in[10]
*117 la_data_in[11]
*118 la_data_in[12]
*119 la_data_in[13]
*120 la_data_in[14]
*121 la_data_in[15]
*122 la_data_in[16]
*123 la_data_in[17]
*124 la_data_in[18]
*125 la_data_in[19]
*126 la_data_in[1]
*127 la_data_in[20]
*128 la_data_in[21]
*129 la_data_in[22]
*130 la_data_in[23]
*131 la_data_in[24]
*132 la_data_in[25]
*133 la_data_in[26]
*134 la_data_in[27]
*135 la_data_in[28]
*136 la_data_in[29]
*137 la_data_in[2]
*138 la_data_in[30]
*139 la_data_in[31]
*140 la_data_in[32]
*141 la_data_in[33]
*142 la_data_in[34]
*143 la_data_in[35]
*144 la_data_in[36]
*145 la_data_in[37]
*146 la_data_in[38]
*147 la_data_in[39]
*148 la_data_in[3]
*149 la_data_in[40]
*150 la_data_in[41]
*151 la_data_in[42]
*152 la_data_in[43]
*153 la_data_in[44]
*154 la_data_in[45]
*155 la_data_in[46]
*156 la_data_in[47]
*157 la_data_in[48]
*158 la_data_in[49]
*159 la_data_in[4]
*160 la_data_in[50]
*161 la_data_in[51]
*162 la_data_in[52]
*163 la_data_in[53]
*164 la_data_in[54]
*165 la_data_in[55]
*166 la_data_in[56]
*167 la_data_in[57]
*168 la_data_in[58]
*169 la_data_in[59]
*170 la_data_in[5]
*171 la_data_in[60]
*172 la_data_in[61]
*173 la_data_in[62]
*174 la_data_in[63]
*175 la_data_in[6]
*176 la_data_in[7]
*177 la_data_in[8]
*178 la_data_in[9]
*179 net91
*180 net101
*181 net102
*182 net103
*183 net104
*184 net105
*185 net106
*186 net107
*187 net108
*188 net109
*189 net110
*190 net92
*191 net111
*192 net112
*193 net113
*194 net114
*195 net115
*196 net116
*197 net117
*198 net118
*199 net119
*200 net120
*201 net93
*202 net121
*203 net122
*204 net123
*205 net124
*206 net125
*207 net126
*208 net127
*209 net128
*210 net129
*211 net130
*212 net94
*213 net131
*214 net132
*215 net133
*216 net134
*217 net135
*218 net136
*219 net137
*220 net138
*221 net139
*222 net140
*223 net95
*224 net141
*225 net142
*226 net143
*227 net144
*228 net145
*229 net146
*230 net147
*231 net148
*232 net149
*233 net150
*234 net96
*235 net151
*236 net152
*237 net153
*238 net154
*239 net97
*240 net98
*241 net99
*242 net100
*243 la_oenb[0]
*244 la_oenb[10]
*245 la_oenb[11]
*246 la_oenb[12]
*247 la_oenb[13]
*248 la_oenb[14]
*249 la_oenb[15]
*250 la_oenb[16]
*251 la_oenb[17]
*252 la_oenb[18]
*253 la_oenb[19]
*254 la_oenb[1]
*255 la_oenb[20]
*256 la_oenb[21]
*257 la_oenb[22]
*258 la_oenb[23]
*259 la_oenb[24]
*260 la_oenb[25]
*261 la_oenb[26]
*262 la_oenb[27]
*263 la_oenb[28]
*264 la_oenb[29]
*265 la_oenb[2]
*266 la_oenb[30]
*267 la_oenb[31]
*268 la_oenb[32]
*269 la_oenb[33]
*270 la_oenb[34]
*271 la_oenb[35]
*272 la_oenb[36]
*273 la_oenb[37]
*274 la_oenb[38]
*275 la_oenb[39]
*276 la_oenb[3]
*277 la_oenb[40]
*278 la_oenb[41]
*279 la_oenb[42]
*280 la_oenb[43]
*281 la_oenb[44]
*282 la_oenb[45]
*283 la_oenb[46]
*284 la_oenb[47]
*285 la_oenb[48]
*286 la_oenb[49]
*287 la_oenb[4]
*288 la_oenb[50]
*289 la_oenb[51]
*290 la_oenb[52]
*291 la_oenb[53]
*292 la_oenb[54]
*293 la_oenb[55]
*294 la_oenb[56]
*295 la_oenb[57]
*296 la_oenb[58]
*297 la_oenb[59]
*298 la_oenb[5]
*299 la_oenb[60]
*300 la_oenb[61]
*301 la_oenb[62]
*302 la_oenb[63]
*303 la_oenb[6]
*304 la_oenb[7]
*305 la_oenb[8]
*306 la_oenb[9]
*307 user_clock2
*308 net155
*309 net156
*310 net157
*313 wb_clk_i
*314 wb_rst_i
*315 net158
*316 wbs_adr_i[0]
*317 wbs_adr_i[10]
*318 wbs_adr_i[11]
*319 wbs_adr_i[12]
*320 wbs_adr_i[13]
*321 wbs_adr_i[14]
*322 wbs_adr_i[15]
*323 wbs_adr_i[16]
*324 wbs_adr_i[17]
*325 wbs_adr_i[18]
*326 wbs_adr_i[19]
*327 wbs_adr_i[1]
*328 wbs_adr_i[20]
*329 wbs_adr_i[21]
*330 wbs_adr_i[22]
*331 wbs_adr_i[23]
*332 wbs_adr_i[24]
*333 wbs_adr_i[25]
*334 wbs_adr_i[26]
*335 wbs_adr_i[27]
*336 wbs_adr_i[28]
*337 wbs_adr_i[29]
*338 wbs_adr_i[2]
*339 wbs_adr_i[30]
*340 wbs_adr_i[31]
*341 wbs_adr_i[3]
*342 wbs_adr_i[4]
*343 wbs_adr_i[5]
*344 wbs_adr_i[6]
*345 wbs_adr_i[7]
*346 wbs_adr_i[8]
*347 wbs_adr_i[9]
*348 wbs_cyc_i
*349 wbs_dat_i[0]
*350 wbs_dat_i[10]
*351 wbs_dat_i[11]
*352 wbs_dat_i[12]
*353 wbs_dat_i[13]
*354 wbs_dat_i[14]
*355 wbs_dat_i[15]
*356 wbs_dat_i[16]
*357 wbs_dat_i[17]
*358 wbs_dat_i[18]
*359 wbs_dat_i[19]
*360 wbs_dat_i[1]
*361 wbs_dat_i[20]
*362 wbs_dat_i[21]
*363 wbs_dat_i[22]
*364 wbs_dat_i[23]
*365 wbs_dat_i[24]
*366 wbs_dat_i[25]
*367 wbs_dat_i[26]
*368 wbs_dat_i[27]
*369 wbs_dat_i[28]
*370 wbs_dat_i[29]
*371 wbs_dat_i[2]
*372 wbs_dat_i[30]
*373 wbs_dat_i[31]
*374 wbs_dat_i[3]
*375 wbs_dat_i[4]
*376 wbs_dat_i[5]
*377 wbs_dat_i[6]
*378 wbs_dat_i[7]
*379 wbs_dat_i[8]
*380 wbs_dat_i[9]
*381 net159
*382 net169
*383 net170
*384 net171
*385 net172
*386 net173
*387 net174
*388 net175
*389 net176
*390 net177
*391 net178
*392 net160
*393 net179
*394 net180
*395 net181
*396 net182
*397 net183
*398 net184
*399 net185
*400 net186
*401 net187
*402 net188
*403 net161
*404 net189
*405 net190
*406 net162
*407 net163
*408 net164
*409 net165
*410 net166
*411 net167
*412 net168
*413 wbs_sel_i[0]
*414 wbs_sel_i[1]
*415 wbs_sel_i[2]
*416 wbs_sel_i[3]
*417 wbs_stb_i
*418 wbs_we_i
*419 _000_
*420 _001_
*421 _002_
*422 net1
*423 net10
*424 net11
*425 net12
*426 net13
*427 net14
*428 net15
*429 net16
*430 net17
*431 net18
*432 net19
*433 net2
*434 net20
*435 net21
*436 net22
*437 net23
*438 net24
*439 net25
*440 net26
*441 net27
*442 net28
*443 net29
*444 net3
*445 net30
*446 net4
*447 net5
*448 net6
*449 net7
*450 net8
*451 net9
*452 ANTENNA__003__A1
*453 ANTENNA__003__A2
*454 ANTENNA__003__A3
*455 ANTENNA__004__A1
*456 ANTENNA__006__A1
*457 ANTENNA__006__A2
*458 ANTENNA__169__I
*459 ANTENNA__170__I
*460 ANTENNA__171__I
*461 ANTENNA__172__I
*462 ANTENNA__174__I
*463 ANTENNA__175__I
*464 ANTENNA__176__I
*465 ANTENNA__177__I
*466 ANTENNA__178__I
*467 ANTENNA__179__I
*468 ANTENNA__180__I
*469 ANTENNA__181__I
*470 ANTENNA_input10_I
*471 ANTENNA_input11_I
*472 ANTENNA_input12_I
*473 ANTENNA_input13_I
*474 ANTENNA_input14_I
*475 ANTENNA_input15_I
*476 ANTENNA_input1_I
*477 ANTENNA_input2_I
*478 ANTENNA_input3_I
*479 ANTENNA_input4_I
*480 ANTENNA_input5_I
*481 ANTENNA_input6_I
*482 ANTENNA_input7_I
*483 ANTENNA_input8_I
*484 ANTENNA_input9_I
*485 ANTENNA_output16_I
*486 ANTENNA_output17_I
*487 ANTENNA_output18_I
*488 ANTENNA_output19_I
*489 ANTENNA_output20_I
*490 ANTENNA_output22_I
*491 ANTENNA_output23_I
*492 ANTENNA_output24_I
*493 ANTENNA_output25_I
*494 ANTENNA_output26_I
*495 ANTENNA_output27_I
*496 ANTENNA_output28_I
*497 ANTENNA_output29_I
*498 ANTENNA_output30_I
*499 FILLER_0_1005
*500 FILLER_0_1009
*501 FILLER_0_101
*502 FILLER_0_1013
*503 FILLER_0_1017
*504 FILLER_0_1025
*505 FILLER_0_1037
*506 FILLER_0_1039
*507 FILLER_0_1044
*508 FILLER_0_107
*509 FILLER_0_11
*510 FILLER_0_115
*511 FILLER_0_119
*512 FILLER_0_125
*513 FILLER_0_133
*514 FILLER_0_137
*515 FILLER_0_139
*516 FILLER_0_142
*517 FILLER_0_174
*518 FILLER_0_177
*519 FILLER_0_2
*520 FILLER_0_209
*521 FILLER_0_212
*522 FILLER_0_228
*523 FILLER_0_233
*524 FILLER_0_237
*525 FILLER_0_239
*526 FILLER_0_244
*527 FILLER_0_247
*528 FILLER_0_251
*529 FILLER_0_257
*530 FILLER_0_27
*531 FILLER_0_273
*532 FILLER_0_277
*533 FILLER_0_279
*534 FILLER_0_282
*535 FILLER_0_287
*536 FILLER_0_299
*537 FILLER_0_317
*538 FILLER_0_323
*539 FILLER_0_329
*540 FILLER_0_345
*541 FILLER_0_349
*542 FILLER_0_352
*543 FILLER_0_368
*544 FILLER_0_37
*545 FILLER_0_384
*546 FILLER_0_387
*547 FILLER_0_405
*548 FILLER_0_413
*549 FILLER_0_419
*550 FILLER_0_422
*551 FILLER_0_426
*552 FILLER_0_431
*553 FILLER_0_447
*554 FILLER_0_449
*555 FILLER_0_454
*556 FILLER_0_457
*557 FILLER_0_462
*558 FILLER_0_466
*559 FILLER_0_468
*560 FILLER_0_483
*561 FILLER_0_489
*562 FILLER_0_492
*563 FILLER_0_508
*564 FILLER_0_516
*565 FILLER_0_521
*566 FILLER_0_527
*567 FILLER_0_53
*568 FILLER_0_543
*569 FILLER_0_551
*570 FILLER_0_559
*571 FILLER_0_562
*572 FILLER_0_59
*573 FILLER_0_594
*574 FILLER_0_597
*575 FILLER_0_6
*576 FILLER_0_602
*577 FILLER_0_608
*578 FILLER_0_612
*579 FILLER_0_617
*580 FILLER_0_625
*581 FILLER_0_629
*582 FILLER_0_632
*583 FILLER_0_648
*584 FILLER_0_65
*585 FILLER_0_656
*586 FILLER_0_660
*587 FILLER_0_664
*588 FILLER_0_667
*589 FILLER_0_682
*590 FILLER_0_688
*591 FILLER_0_69
*592 FILLER_0_690
*593 FILLER_0_695
*594 FILLER_0_699
*595 FILLER_0_702
*596 FILLER_0_718
*597 FILLER_0_72
*598 FILLER_0_726
*599 FILLER_0_731
*600 FILLER_0_737
*601 FILLER_0_743
*602 FILLER_0_759
*603 FILLER_0_765
*604 FILLER_0_769
*605 FILLER_0_77
*606 FILLER_0_772
*607 FILLER_0_787
*608 FILLER_0_803
*609 FILLER_0_807
*610 FILLER_0_827
*611 FILLER_0_835
*612 FILLER_0_839
*613 FILLER_0_842
*614 FILLER_0_874
*615 FILLER_0_877
*616 FILLER_0_885
*617 FILLER_0_893
*618 FILLER_0_909
*619 FILLER_0_912
*620 FILLER_0_93
*621 FILLER_0_944
*622 FILLER_0_947
*623 FILLER_0_952
*624 FILLER_0_960
*625 FILLER_0_964
*626 FILLER_0_966
*627 FILLER_0_971
*628 FILLER_0_979
*629 FILLER_0_982
*630 FILLER_0_987
*631 FILLER_100_101
*632 FILLER_100_1024
*633 FILLER_100_1028
*634 FILLER_100_1031
*635 FILLER_100_1039
*636 FILLER_100_1043
*637 FILLER_100_105
*638 FILLER_100_108
*639 FILLER_100_172
*640 FILLER_100_176
*641 FILLER_100_179
*642 FILLER_100_2
*643 FILLER_100_243
*644 FILLER_100_247
*645 FILLER_100_250
*646 FILLER_100_314
*647 FILLER_100_318
*648 FILLER_100_321
*649 FILLER_100_34
*650 FILLER_100_37
*651 FILLER_100_385
*652 FILLER_100_389
*653 FILLER_100_392
*654 FILLER_100_456
*655 FILLER_100_460
*656 FILLER_100_463
*657 FILLER_100_527
*658 FILLER_100_531
*659 FILLER_100_534
*660 FILLER_100_598
*661 FILLER_100_602
*662 FILLER_100_605
*663 FILLER_100_669
*664 FILLER_100_673
*665 FILLER_100_676
*666 FILLER_100_740
*667 FILLER_100_744
*668 FILLER_100_747
*669 FILLER_100_811
*670 FILLER_100_815
*671 FILLER_100_818
*672 FILLER_100_882
*673 FILLER_100_886
*674 FILLER_100_889
*675 FILLER_100_953
*676 FILLER_100_957
*677 FILLER_100_960
*678 FILLER_101_1028
*679 FILLER_101_1036
*680 FILLER_101_1044
*681 FILLER_101_137
*682 FILLER_101_141
*683 FILLER_101_144
*684 FILLER_101_2
*685 FILLER_101_208
*686 FILLER_101_212
*687 FILLER_101_215
*688 FILLER_101_279
*689 FILLER_101_283
*690 FILLER_101_286
*691 FILLER_101_350
*692 FILLER_101_354
*693 FILLER_101_357
*694 FILLER_101_421
*695 FILLER_101_425
*696 FILLER_101_428
*697 FILLER_101_492
*698 FILLER_101_496
*699 FILLER_101_499
*700 FILLER_101_563
*701 FILLER_101_567
*702 FILLER_101_570
*703 FILLER_101_634
*704 FILLER_101_638
*705 FILLER_101_641
*706 FILLER_101_66
*707 FILLER_101_70
*708 FILLER_101_705
*709 FILLER_101_709
*710 FILLER_101_712
*711 FILLER_101_73
*712 FILLER_101_776
*713 FILLER_101_780
*714 FILLER_101_783
*715 FILLER_101_847
*716 FILLER_101_851
*717 FILLER_101_854
*718 FILLER_101_918
*719 FILLER_101_922
*720 FILLER_101_925
*721 FILLER_101_989
*722 FILLER_101_993
*723 FILLER_101_996
*724 FILLER_102_101
*725 FILLER_102_1024
*726 FILLER_102_1028
*727 FILLER_102_1031
*728 FILLER_102_1039
*729 FILLER_102_1043
*730 FILLER_102_105
*731 FILLER_102_108
*732 FILLER_102_13
*733 FILLER_102_172
*734 FILLER_102_176
*735 FILLER_102_179
*736 FILLER_102_2
*737 FILLER_102_243
*738 FILLER_102_247
*739 FILLER_102_250
*740 FILLER_102_29
*741 FILLER_102_314
*742 FILLER_102_318
*743 FILLER_102_321
*744 FILLER_102_33
*745 FILLER_102_37
*746 FILLER_102_385
*747 FILLER_102_389
*748 FILLER_102_392
*749 FILLER_102_456
*750 FILLER_102_460
*751 FILLER_102_463
*752 FILLER_102_527
*753 FILLER_102_531
*754 FILLER_102_534
*755 FILLER_102_598
*756 FILLER_102_602
*757 FILLER_102_605
*758 FILLER_102_669
*759 FILLER_102_673
*760 FILLER_102_676
*761 FILLER_102_7
*762 FILLER_102_740
*763 FILLER_102_744
*764 FILLER_102_747
*765 FILLER_102_811
*766 FILLER_102_815
*767 FILLER_102_818
*768 FILLER_102_882
*769 FILLER_102_886
*770 FILLER_102_889
*771 FILLER_102_953
*772 FILLER_102_957
*773 FILLER_102_960
*774 FILLER_103_1028
*775 FILLER_103_1036
*776 FILLER_103_1044
*777 FILLER_103_137
*778 FILLER_103_141
*779 FILLER_103_144
*780 FILLER_103_2
*781 FILLER_103_208
*782 FILLER_103_212
*783 FILLER_103_215
*784 FILLER_103_279
*785 FILLER_103_283
*786 FILLER_103_286
*787 FILLER_103_350
*788 FILLER_103_354
*789 FILLER_103_357
*790 FILLER_103_421
*791 FILLER_103_425
*792 FILLER_103_428
*793 FILLER_103_492
*794 FILLER_103_496
*795 FILLER_103_499
*796 FILLER_103_563
*797 FILLER_103_567
*798 FILLER_103_570
*799 FILLER_103_634
*800 FILLER_103_638
*801 FILLER_103_641
*802 FILLER_103_66
*803 FILLER_103_70
*804 FILLER_103_705
*805 FILLER_103_709
*806 FILLER_103_712
*807 FILLER_103_73
*808 FILLER_103_776
*809 FILLER_103_780
*810 FILLER_103_783
*811 FILLER_103_847
*812 FILLER_103_851
*813 FILLER_103_854
*814 FILLER_103_918
*815 FILLER_103_922
*816 FILLER_103_925
*817 FILLER_103_989
*818 FILLER_103_993
*819 FILLER_103_996
*820 FILLER_104_101
*821 FILLER_104_1024
*822 FILLER_104_1028
*823 FILLER_104_1031
*824 FILLER_104_1039
*825 FILLER_104_1043
*826 FILLER_104_105
*827 FILLER_104_108
*828 FILLER_104_172
*829 FILLER_104_176
*830 FILLER_104_179
*831 FILLER_104_2
*832 FILLER_104_23
*833 FILLER_104_243
*834 FILLER_104_247
*835 FILLER_104_250
*836 FILLER_104_31
*837 FILLER_104_314
*838 FILLER_104_318
*839 FILLER_104_321
*840 FILLER_104_37
*841 FILLER_104_385
*842 FILLER_104_389
*843 FILLER_104_392
*844 FILLER_104_456
*845 FILLER_104_460
*846 FILLER_104_463
*847 FILLER_104_527
*848 FILLER_104_531
*849 FILLER_104_534
*850 FILLER_104_598
*851 FILLER_104_602
*852 FILLER_104_605
*853 FILLER_104_669
*854 FILLER_104_673
*855 FILLER_104_676
*856 FILLER_104_7
*857 FILLER_104_740
*858 FILLER_104_744
*859 FILLER_104_747
*860 FILLER_104_811
*861 FILLER_104_815
*862 FILLER_104_818
*863 FILLER_104_882
*864 FILLER_104_886
*865 FILLER_104_889
*866 FILLER_104_953
*867 FILLER_104_957
*868 FILLER_104_960
*869 FILLER_105_1028
*870 FILLER_105_1044
*871 FILLER_105_137
*872 FILLER_105_141
*873 FILLER_105_144
*874 FILLER_105_2
*875 FILLER_105_208
*876 FILLER_105_212
*877 FILLER_105_215
*878 FILLER_105_279
*879 FILLER_105_283
*880 FILLER_105_286
*881 FILLER_105_350
*882 FILLER_105_354
*883 FILLER_105_357
*884 FILLER_105_421
*885 FILLER_105_425
*886 FILLER_105_428
*887 FILLER_105_492
*888 FILLER_105_496
*889 FILLER_105_499
*890 FILLER_105_563
*891 FILLER_105_567
*892 FILLER_105_570
*893 FILLER_105_634
*894 FILLER_105_638
*895 FILLER_105_641
*896 FILLER_105_66
*897 FILLER_105_70
*898 FILLER_105_705
*899 FILLER_105_709
*900 FILLER_105_712
*901 FILLER_105_73
*902 FILLER_105_776
*903 FILLER_105_780
*904 FILLER_105_783
*905 FILLER_105_847
*906 FILLER_105_851
*907 FILLER_105_854
*908 FILLER_105_918
*909 FILLER_105_922
*910 FILLER_105_925
*911 FILLER_105_989
*912 FILLER_105_993
*913 FILLER_105_996
*914 FILLER_106_101
*915 FILLER_106_1024
*916 FILLER_106_1028
*917 FILLER_106_1031
*918 FILLER_106_1039
*919 FILLER_106_1043
*920 FILLER_106_105
*921 FILLER_106_108
*922 FILLER_106_172
*923 FILLER_106_176
*924 FILLER_106_179
*925 FILLER_106_2
*926 FILLER_106_243
*927 FILLER_106_247
*928 FILLER_106_250
*929 FILLER_106_314
*930 FILLER_106_318
*931 FILLER_106_321
*932 FILLER_106_34
*933 FILLER_106_37
*934 FILLER_106_385
*935 FILLER_106_389
*936 FILLER_106_392
*937 FILLER_106_456
*938 FILLER_106_460
*939 FILLER_106_463
*940 FILLER_106_527
*941 FILLER_106_531
*942 FILLER_106_534
*943 FILLER_106_598
*944 FILLER_106_602
*945 FILLER_106_605
*946 FILLER_106_669
*947 FILLER_106_673
*948 FILLER_106_676
*949 FILLER_106_740
*950 FILLER_106_744
*951 FILLER_106_747
*952 FILLER_106_811
*953 FILLER_106_815
*954 FILLER_106_818
*955 FILLER_106_882
*956 FILLER_106_886
*957 FILLER_106_889
*958 FILLER_106_953
*959 FILLER_106_957
*960 FILLER_106_960
*961 FILLER_107_1028
*962 FILLER_107_1044
*963 FILLER_107_137
*964 FILLER_107_141
*965 FILLER_107_144
*966 FILLER_107_2
*967 FILLER_107_208
*968 FILLER_107_212
*969 FILLER_107_215
*970 FILLER_107_279
*971 FILLER_107_283
*972 FILLER_107_286
*973 FILLER_107_350
*974 FILLER_107_354
*975 FILLER_107_357
*976 FILLER_107_421
*977 FILLER_107_425
*978 FILLER_107_428
*979 FILLER_107_492
*980 FILLER_107_496
*981 FILLER_107_499
*982 FILLER_107_563
*983 FILLER_107_567
*984 FILLER_107_570
*985 FILLER_107_634
*986 FILLER_107_638
*987 FILLER_107_641
*988 FILLER_107_66
*989 FILLER_107_70
*990 FILLER_107_705
*991 FILLER_107_709
*992 FILLER_107_712
*993 FILLER_107_73
*994 FILLER_107_776
*995 FILLER_107_780
*996 FILLER_107_783
*997 FILLER_107_847
*998 FILLER_107_851
*999 FILLER_107_854
*1000 FILLER_107_918
*1001 FILLER_107_922
*1002 FILLER_107_925
*1003 FILLER_107_989
*1004 FILLER_107_993
*1005 FILLER_107_996
*1006 FILLER_108_101
*1007 FILLER_108_1024
*1008 FILLER_108_1028
*1009 FILLER_108_1031
*1010 FILLER_108_1039
*1011 FILLER_108_1044
*1012 FILLER_108_105
*1013 FILLER_108_108
*1014 FILLER_108_172
*1015 FILLER_108_176
*1016 FILLER_108_179
*1017 FILLER_108_2
*1018 FILLER_108_243
*1019 FILLER_108_247
*1020 FILLER_108_250
*1021 FILLER_108_314
*1022 FILLER_108_318
*1023 FILLER_108_321
*1024 FILLER_108_34
*1025 FILLER_108_37
*1026 FILLER_108_385
*1027 FILLER_108_389
*1028 FILLER_108_392
*1029 FILLER_108_456
*1030 FILLER_108_460
*1031 FILLER_108_463
*1032 FILLER_108_527
*1033 FILLER_108_531
*1034 FILLER_108_534
*1035 FILLER_108_598
*1036 FILLER_108_602
*1037 FILLER_108_605
*1038 FILLER_108_669
*1039 FILLER_108_673
*1040 FILLER_108_676
*1041 FILLER_108_740
*1042 FILLER_108_744
*1043 FILLER_108_747
*1044 FILLER_108_811
*1045 FILLER_108_815
*1046 FILLER_108_818
*1047 FILLER_108_882
*1048 FILLER_108_886
*1049 FILLER_108_889
*1050 FILLER_108_953
*1051 FILLER_108_957
*1052 FILLER_108_960
*1053 FILLER_109_1028
*1054 FILLER_109_1044
*1055 FILLER_109_137
*1056 FILLER_109_141
*1057 FILLER_109_144
*1058 FILLER_109_2
*1059 FILLER_109_208
*1060 FILLER_109_212
*1061 FILLER_109_215
*1062 FILLER_109_279
*1063 FILLER_109_283
*1064 FILLER_109_286
*1065 FILLER_109_350
*1066 FILLER_109_354
*1067 FILLER_109_357
*1068 FILLER_109_421
*1069 FILLER_109_425
*1070 FILLER_109_428
*1071 FILLER_109_492
*1072 FILLER_109_496
*1073 FILLER_109_499
*1074 FILLER_109_563
*1075 FILLER_109_567
*1076 FILLER_109_570
*1077 FILLER_109_634
*1078 FILLER_109_638
*1079 FILLER_109_641
*1080 FILLER_109_66
*1081 FILLER_109_70
*1082 FILLER_109_705
*1083 FILLER_109_709
*1084 FILLER_109_712
*1085 FILLER_109_73
*1086 FILLER_109_776
*1087 FILLER_109_780
*1088 FILLER_109_783
*1089 FILLER_109_847
*1090 FILLER_109_851
*1091 FILLER_109_854
*1092 FILLER_109_918
*1093 FILLER_109_922
*1094 FILLER_109_925
*1095 FILLER_109_989
*1096 FILLER_109_993
*1097 FILLER_109_996
*1098 FILLER_10_101
*1099 FILLER_10_1024
*1100 FILLER_10_1028
*1101 FILLER_10_1031
*1102 FILLER_10_1039
*1103 FILLER_10_1043
*1104 FILLER_10_105
*1105 FILLER_10_108
*1106 FILLER_10_172
*1107 FILLER_10_176
*1108 FILLER_10_179
*1109 FILLER_10_2
*1110 FILLER_10_23
*1111 FILLER_10_243
*1112 FILLER_10_247
*1113 FILLER_10_250
*1114 FILLER_10_31
*1115 FILLER_10_314
*1116 FILLER_10_318
*1117 FILLER_10_321
*1118 FILLER_10_37
*1119 FILLER_10_385
*1120 FILLER_10_389
*1121 FILLER_10_392
*1122 FILLER_10_456
*1123 FILLER_10_460
*1124 FILLER_10_463
*1125 FILLER_10_527
*1126 FILLER_10_531
*1127 FILLER_10_534
*1128 FILLER_10_598
*1129 FILLER_10_602
*1130 FILLER_10_605
*1131 FILLER_10_669
*1132 FILLER_10_673
*1133 FILLER_10_676
*1134 FILLER_10_7
*1135 FILLER_10_740
*1136 FILLER_10_744
*1137 FILLER_10_747
*1138 FILLER_10_811
*1139 FILLER_10_815
*1140 FILLER_10_818
*1141 FILLER_10_882
*1142 FILLER_10_886
*1143 FILLER_10_889
*1144 FILLER_10_953
*1145 FILLER_10_957
*1146 FILLER_10_960
*1147 FILLER_110_101
*1148 FILLER_110_1024
*1149 FILLER_110_1028
*1150 FILLER_110_1031
*1151 FILLER_110_1039
*1152 FILLER_110_1043
*1153 FILLER_110_105
*1154 FILLER_110_108
*1155 FILLER_110_172
*1156 FILLER_110_176
*1157 FILLER_110_179
*1158 FILLER_110_2
*1159 FILLER_110_21
*1160 FILLER_110_243
*1161 FILLER_110_247
*1162 FILLER_110_250
*1163 FILLER_110_29
*1164 FILLER_110_314
*1165 FILLER_110_318
*1166 FILLER_110_321
*1167 FILLER_110_33
*1168 FILLER_110_37
*1169 FILLER_110_385
*1170 FILLER_110_389
*1171 FILLER_110_392
*1172 FILLER_110_456
*1173 FILLER_110_460
*1174 FILLER_110_463
*1175 FILLER_110_5
*1176 FILLER_110_527
*1177 FILLER_110_531
*1178 FILLER_110_534
*1179 FILLER_110_598
*1180 FILLER_110_602
*1181 FILLER_110_605
*1182 FILLER_110_669
*1183 FILLER_110_673
*1184 FILLER_110_676
*1185 FILLER_110_740
*1186 FILLER_110_744
*1187 FILLER_110_747
*1188 FILLER_110_811
*1189 FILLER_110_815
*1190 FILLER_110_818
*1191 FILLER_110_882
*1192 FILLER_110_886
*1193 FILLER_110_889
*1194 FILLER_110_953
*1195 FILLER_110_957
*1196 FILLER_110_960
*1197 FILLER_111_1028
*1198 FILLER_111_1044
*1199 FILLER_111_137
*1200 FILLER_111_141
*1201 FILLER_111_144
*1202 FILLER_111_19
*1203 FILLER_111_2
*1204 FILLER_111_208
*1205 FILLER_111_212
*1206 FILLER_111_215
*1207 FILLER_111_279
*1208 FILLER_111_283
*1209 FILLER_111_286
*1210 FILLER_111_350
*1211 FILLER_111_354
*1212 FILLER_111_357
*1213 FILLER_111_421
*1214 FILLER_111_425
*1215 FILLER_111_428
*1216 FILLER_111_492
*1217 FILLER_111_496
*1218 FILLER_111_499
*1219 FILLER_111_51
*1220 FILLER_111_563
*1221 FILLER_111_567
*1222 FILLER_111_570
*1223 FILLER_111_634
*1224 FILLER_111_638
*1225 FILLER_111_641
*1226 FILLER_111_67
*1227 FILLER_111_705
*1228 FILLER_111_709
*1229 FILLER_111_712
*1230 FILLER_111_73
*1231 FILLER_111_776
*1232 FILLER_111_780
*1233 FILLER_111_783
*1234 FILLER_111_847
*1235 FILLER_111_851
*1236 FILLER_111_854
*1237 FILLER_111_918
*1238 FILLER_111_922
*1239 FILLER_111_925
*1240 FILLER_111_989
*1241 FILLER_111_993
*1242 FILLER_111_996
*1243 FILLER_112_101
*1244 FILLER_112_1024
*1245 FILLER_112_1028
*1246 FILLER_112_1031
*1247 FILLER_112_1039
*1248 FILLER_112_1044
*1249 FILLER_112_105
*1250 FILLER_112_108
*1251 FILLER_112_172
*1252 FILLER_112_176
*1253 FILLER_112_179
*1254 FILLER_112_2
*1255 FILLER_112_23
*1256 FILLER_112_243
*1257 FILLER_112_247
*1258 FILLER_112_250
*1259 FILLER_112_31
*1260 FILLER_112_314
*1261 FILLER_112_318
*1262 FILLER_112_321
*1263 FILLER_112_37
*1264 FILLER_112_385
*1265 FILLER_112_389
*1266 FILLER_112_392
*1267 FILLER_112_456
*1268 FILLER_112_460
*1269 FILLER_112_463
*1270 FILLER_112_527
*1271 FILLER_112_531
*1272 FILLER_112_534
*1273 FILLER_112_598
*1274 FILLER_112_602
*1275 FILLER_112_605
*1276 FILLER_112_669
*1277 FILLER_112_673
*1278 FILLER_112_676
*1279 FILLER_112_7
*1280 FILLER_112_740
*1281 FILLER_112_744
*1282 FILLER_112_747
*1283 FILLER_112_811
*1284 FILLER_112_815
*1285 FILLER_112_818
*1286 FILLER_112_882
*1287 FILLER_112_886
*1288 FILLER_112_889
*1289 FILLER_112_953
*1290 FILLER_112_957
*1291 FILLER_112_960
*1292 FILLER_113_1028
*1293 FILLER_113_1044
*1294 FILLER_113_137
*1295 FILLER_113_141
*1296 FILLER_113_144
*1297 FILLER_113_2
*1298 FILLER_113_208
*1299 FILLER_113_212
*1300 FILLER_113_215
*1301 FILLER_113_279
*1302 FILLER_113_283
*1303 FILLER_113_286
*1304 FILLER_113_350
*1305 FILLER_113_354
*1306 FILLER_113_357
*1307 FILLER_113_421
*1308 FILLER_113_425
*1309 FILLER_113_428
*1310 FILLER_113_492
*1311 FILLER_113_496
*1312 FILLER_113_499
*1313 FILLER_113_563
*1314 FILLER_113_567
*1315 FILLER_113_570
*1316 FILLER_113_634
*1317 FILLER_113_638
*1318 FILLER_113_641
*1319 FILLER_113_66
*1320 FILLER_113_70
*1321 FILLER_113_705
*1322 FILLER_113_709
*1323 FILLER_113_712
*1324 FILLER_113_73
*1325 FILLER_113_776
*1326 FILLER_113_780
*1327 FILLER_113_783
*1328 FILLER_113_847
*1329 FILLER_113_851
*1330 FILLER_113_854
*1331 FILLER_113_918
*1332 FILLER_113_922
*1333 FILLER_113_925
*1334 FILLER_113_989
*1335 FILLER_113_993
*1336 FILLER_113_996
*1337 FILLER_114_101
*1338 FILLER_114_1024
*1339 FILLER_114_1028
*1340 FILLER_114_1031
*1341 FILLER_114_1039
*1342 FILLER_114_1043
*1343 FILLER_114_105
*1344 FILLER_114_108
*1345 FILLER_114_172
*1346 FILLER_114_176
*1347 FILLER_114_179
*1348 FILLER_114_2
*1349 FILLER_114_23
*1350 FILLER_114_243
*1351 FILLER_114_247
*1352 FILLER_114_250
*1353 FILLER_114_31
*1354 FILLER_114_314
*1355 FILLER_114_318
*1356 FILLER_114_321
*1357 FILLER_114_37
*1358 FILLER_114_385
*1359 FILLER_114_389
*1360 FILLER_114_392
*1361 FILLER_114_456
*1362 FILLER_114_460
*1363 FILLER_114_463
*1364 FILLER_114_527
*1365 FILLER_114_531
*1366 FILLER_114_534
*1367 FILLER_114_598
*1368 FILLER_114_602
*1369 FILLER_114_605
*1370 FILLER_114_669
*1371 FILLER_114_673
*1372 FILLER_114_676
*1373 FILLER_114_7
*1374 FILLER_114_740
*1375 FILLER_114_744
*1376 FILLER_114_747
*1377 FILLER_114_811
*1378 FILLER_114_815
*1379 FILLER_114_818
*1380 FILLER_114_882
*1381 FILLER_114_886
*1382 FILLER_114_889
*1383 FILLER_114_953
*1384 FILLER_114_957
*1385 FILLER_114_960
*1386 FILLER_115_1028
*1387 FILLER_115_1044
*1388 FILLER_115_137
*1389 FILLER_115_141
*1390 FILLER_115_144
*1391 FILLER_115_2
*1392 FILLER_115_208
*1393 FILLER_115_212
*1394 FILLER_115_215
*1395 FILLER_115_279
*1396 FILLER_115_283
*1397 FILLER_115_286
*1398 FILLER_115_350
*1399 FILLER_115_354
*1400 FILLER_115_357
*1401 FILLER_115_421
*1402 FILLER_115_425
*1403 FILLER_115_428
*1404 FILLER_115_492
*1405 FILLER_115_496
*1406 FILLER_115_499
*1407 FILLER_115_563
*1408 FILLER_115_567
*1409 FILLER_115_570
*1410 FILLER_115_634
*1411 FILLER_115_638
*1412 FILLER_115_641
*1413 FILLER_115_66
*1414 FILLER_115_70
*1415 FILLER_115_705
*1416 FILLER_115_709
*1417 FILLER_115_712
*1418 FILLER_115_73
*1419 FILLER_115_776
*1420 FILLER_115_780
*1421 FILLER_115_783
*1422 FILLER_115_847
*1423 FILLER_115_851
*1424 FILLER_115_854
*1425 FILLER_115_918
*1426 FILLER_115_922
*1427 FILLER_115_925
*1428 FILLER_115_989
*1429 FILLER_115_993
*1430 FILLER_115_996
*1431 FILLER_116_101
*1432 FILLER_116_1024
*1433 FILLER_116_1028
*1434 FILLER_116_1031
*1435 FILLER_116_1039
*1436 FILLER_116_1043
*1437 FILLER_116_105
*1438 FILLER_116_108
*1439 FILLER_116_172
*1440 FILLER_116_176
*1441 FILLER_116_179
*1442 FILLER_116_2
*1443 FILLER_116_243
*1444 FILLER_116_247
*1445 FILLER_116_250
*1446 FILLER_116_314
*1447 FILLER_116_318
*1448 FILLER_116_321
*1449 FILLER_116_34
*1450 FILLER_116_37
*1451 FILLER_116_385
*1452 FILLER_116_389
*1453 FILLER_116_392
*1454 FILLER_116_456
*1455 FILLER_116_460
*1456 FILLER_116_463
*1457 FILLER_116_527
*1458 FILLER_116_531
*1459 FILLER_116_534
*1460 FILLER_116_598
*1461 FILLER_116_602
*1462 FILLER_116_605
*1463 FILLER_116_669
*1464 FILLER_116_673
*1465 FILLER_116_676
*1466 FILLER_116_740
*1467 FILLER_116_744
*1468 FILLER_116_747
*1469 FILLER_116_811
*1470 FILLER_116_815
*1471 FILLER_116_818
*1472 FILLER_116_882
*1473 FILLER_116_886
*1474 FILLER_116_889
*1475 FILLER_116_953
*1476 FILLER_116_957
*1477 FILLER_116_960
*1478 FILLER_117_1028
*1479 FILLER_117_1044
*1480 FILLER_117_137
*1481 FILLER_117_141
*1482 FILLER_117_144
*1483 FILLER_117_2
*1484 FILLER_117_208
*1485 FILLER_117_212
*1486 FILLER_117_215
*1487 FILLER_117_279
*1488 FILLER_117_283
*1489 FILLER_117_286
*1490 FILLER_117_350
*1491 FILLER_117_354
*1492 FILLER_117_357
*1493 FILLER_117_421
*1494 FILLER_117_425
*1495 FILLER_117_428
*1496 FILLER_117_492
*1497 FILLER_117_496
*1498 FILLER_117_499
*1499 FILLER_117_563
*1500 FILLER_117_567
*1501 FILLER_117_570
*1502 FILLER_117_634
*1503 FILLER_117_638
*1504 FILLER_117_641
*1505 FILLER_117_7
*1506 FILLER_117_705
*1507 FILLER_117_709
*1508 FILLER_117_712
*1509 FILLER_117_73
*1510 FILLER_117_776
*1511 FILLER_117_780
*1512 FILLER_117_783
*1513 FILLER_117_847
*1514 FILLER_117_851
*1515 FILLER_117_854
*1516 FILLER_117_918
*1517 FILLER_117_922
*1518 FILLER_117_925
*1519 FILLER_117_989
*1520 FILLER_117_993
*1521 FILLER_117_996
*1522 FILLER_118_101
*1523 FILLER_118_1024
*1524 FILLER_118_1028
*1525 FILLER_118_1031
*1526 FILLER_118_1039
*1527 FILLER_118_1044
*1528 FILLER_118_105
*1529 FILLER_118_108
*1530 FILLER_118_172
*1531 FILLER_118_176
*1532 FILLER_118_179
*1533 FILLER_118_2
*1534 FILLER_118_243
*1535 FILLER_118_247
*1536 FILLER_118_250
*1537 FILLER_118_314
*1538 FILLER_118_318
*1539 FILLER_118_321
*1540 FILLER_118_34
*1541 FILLER_118_37
*1542 FILLER_118_385
*1543 FILLER_118_389
*1544 FILLER_118_392
*1545 FILLER_118_456
*1546 FILLER_118_460
*1547 FILLER_118_463
*1548 FILLER_118_527
*1549 FILLER_118_531
*1550 FILLER_118_534
*1551 FILLER_118_598
*1552 FILLER_118_602
*1553 FILLER_118_605
*1554 FILLER_118_669
*1555 FILLER_118_673
*1556 FILLER_118_676
*1557 FILLER_118_740
*1558 FILLER_118_744
*1559 FILLER_118_747
*1560 FILLER_118_811
*1561 FILLER_118_815
*1562 FILLER_118_818
*1563 FILLER_118_882
*1564 FILLER_118_886
*1565 FILLER_118_889
*1566 FILLER_118_953
*1567 FILLER_118_957
*1568 FILLER_118_960
*1569 FILLER_119_1028
*1570 FILLER_119_1044
*1571 FILLER_119_137
*1572 FILLER_119_141
*1573 FILLER_119_144
*1574 FILLER_119_2
*1575 FILLER_119_208
*1576 FILLER_119_212
*1577 FILLER_119_215
*1578 FILLER_119_279
*1579 FILLER_119_283
*1580 FILLER_119_286
*1581 FILLER_119_350
*1582 FILLER_119_354
*1583 FILLER_119_357
*1584 FILLER_119_421
*1585 FILLER_119_425
*1586 FILLER_119_428
*1587 FILLER_119_492